*************************************************
   ChampSim Multicore Out-of-Order Simulator
   Last compiled: Jan  7 2023 05:01:22
*************************************************

trace_0 ../traces/462.libquantum-714B.champsimtrace.xz
GHB PC/CS prefetching
Initialize LFU state
warmup_instructions 50000000
simulation_instructions 100000000
champsim_seed 222

num_cpus 1
cpu_freq 4000
dram_io_freq 2400
page_size 4096
block_size 64
max_read_per_cycle 8
max_fill_per_cycle 1
dram_channels 1
dram_ranks 1
dram_banks 8
dram_rows 65536
dram_columns 128
dram_row_size 8
dram_size 4096
dram_pages 1048576

fetch_width 6
decode_width 6
exec_width 4
lq_width 2
sq_width 2
retire_width 4
scheduler_size 128
branch_mispredict_penalty 20
rob_size 256
lq_size 72
sq_size 56
num_instr_destinations_sparc 4
num_instr_destinations 2
num_instr_sources 4

itlb_set 16
itlb_way 8
itlb_rq_size 16
itlb_wq_size 16
itlb_pq_size 0
itlb_mshr_size 8
itlb_latency 1

dtlb_set 16
dtlb_way 4
dtlb_rq_size 16
dtlb_wq_size 16
dtlb_pq_size 0
dtlb_mshr_size 8
dtlb_latency 1

stlb_set 128
stlb_way 12
stlb_rq_size 32
stlb_wq_size 32
stlb_pq_size 0
stlb_mshr_size 16
stlb_latency 8

l1i_size 32
l1i_set 64
l1i_way 8
l1i_rq_size 64
l1i_wq_size 64
l1i_pq_size 8
l1i_mshr_size 8
l1i_latency 1

l1d_size 32
l1d_set 64
l1d_way 8
l1d_rq_size 64
l1d_wq_size 64
l1d_pq_size 8
l1d_mshr_size 16
l1d_latency 4

l2c_size 512
l2c_set 1024
l2c_way 8
l2c_rq_size 32
l2c_wq_size 32
l2c_pq_size 16
l2c_mshr_size 32
l2c_latency 10

llc_size 2048
llc_set 2048
llc_way 16
llc_rq_size 32
llc_wq_size 32
llc_pq_size 32
llc_mshr_size 64
llc_latency 20

dram_channel_width 8
dram_wq_size 64
dram_rq_size 64
tRP 15
tRCD 15
tCAS 12.5
dram_dbus_turn_around_time 30
dram_write_high_wm 56
dram_write_low_wm 48
min_dram_writes_per_switch 16
dram_mtps 2400
dram_dbus_return_time 13


Heartbeat CPU  0 instructions:    1000000 cycles:     548321 heartbeat IPC: 1.82375 cumulative IPC: 1.82375 (Simulation time: 0 hr 0 min 2 sec) 
Heartbeat CPU  0 instructions:    2000003 cycles:    1096974 heartbeat IPC: 1.82265 cumulative IPC: 1.82320 (Simulation time: 0 hr 0 min 3 sec) 
Heartbeat CPU  0 instructions:    3000002 cycles:    1645623 heartbeat IPC: 1.82266 cumulative IPC: 1.82302 (Simulation time: 0 hr 0 min 5 sec) 
Heartbeat CPU  0 instructions:    4000000 cycles:    2194272 heartbeat IPC: 1.82266 cumulative IPC: 1.82293 (Simulation time: 0 hr 0 min 6 sec) 
Heartbeat CPU  0 instructions:    5000000 cycles:    2742923 heartbeat IPC: 1.82265 cumulative IPC: 1.82287 (Simulation time: 0 hr 0 min 7 sec) 
Heartbeat CPU  0 instructions:    6000000 cycles:    3291575 heartbeat IPC: 1.82265 cumulative IPC: 1.82284 (Simulation time: 0 hr 0 min 9 sec) 
Heartbeat CPU  0 instructions:    7000000 cycles:    3840226 heartbeat IPC: 1.82265 cumulative IPC: 1.82281 (Simulation time: 0 hr 0 min 10 sec) 
Heartbeat CPU  0 instructions:    8000000 cycles:    4388878 heartbeat IPC: 1.82265 cumulative IPC: 1.82279 (Simulation time: 0 hr 0 min 12 sec) 
Heartbeat CPU  0 instructions:    9000002 cycles:    4917713 heartbeat IPC: 1.89095 cumulative IPC: 1.83012 (Simulation time: 0 hr 0 min 14 sec) 
Heartbeat CPU  0 instructions:   10000002 cycles:    5440017 heartbeat IPC: 1.91459 cumulative IPC: 1.83823 (Simulation time: 0 hr 0 min 16 sec) 
Heartbeat CPU  0 instructions:   11000001 cycles:    5962344 heartbeat IPC: 1.91451 cumulative IPC: 1.84491 (Simulation time: 0 hr 0 min 18 sec) 
Heartbeat CPU  0 instructions:   12000000 cycles:    6484648 heartbeat IPC: 1.91459 cumulative IPC: 1.85052 (Simulation time: 0 hr 0 min 20 sec) 
Heartbeat CPU  0 instructions:   13000000 cycles:    7006999 heartbeat IPC: 1.91442 cumulative IPC: 1.85529 (Simulation time: 0 hr 0 min 22 sec) 
Heartbeat CPU  0 instructions:   14000000 cycles:    7529303 heartbeat IPC: 1.91459 cumulative IPC: 1.85940 (Simulation time: 0 hr 0 min 24 sec) 
Heartbeat CPU  0 instructions:   15000003 cycles:    8051631 heartbeat IPC: 1.91451 cumulative IPC: 1.86298 (Simulation time: 0 hr 0 min 27 sec) 
Heartbeat CPU  0 instructions:   16000000 cycles:    8573935 heartbeat IPC: 1.91459 cumulative IPC: 1.86612 (Simulation time: 0 hr 0 min 29 sec) 
Heartbeat CPU  0 instructions:   17000000 cycles:    9096286 heartbeat IPC: 1.91442 cumulative IPC: 1.86889 (Simulation time: 0 hr 0 min 31 sec) 
Heartbeat CPU  0 instructions:   18000000 cycles:    9618590 heartbeat IPC: 1.91459 cumulative IPC: 1.87138 (Simulation time: 0 hr 0 min 33 sec) 
Heartbeat CPU  0 instructions:   19000003 cycles:   10140917 heartbeat IPC: 1.91452 cumulative IPC: 1.87360 (Simulation time: 0 hr 0 min 35 sec) 
Heartbeat CPU  0 instructions:   20000000 cycles:   10663221 heartbeat IPC: 1.91459 cumulative IPC: 1.87561 (Simulation time: 0 hr 0 min 37 sec) 
Heartbeat CPU  0 instructions:   21000000 cycles:   11185572 heartbeat IPC: 1.91442 cumulative IPC: 1.87742 (Simulation time: 0 hr 0 min 39 sec) 
Heartbeat CPU  0 instructions:   22000000 cycles:   11707876 heartbeat IPC: 1.91459 cumulative IPC: 1.87908 (Simulation time: 0 hr 0 min 41 sec) 
Heartbeat CPU  0 instructions:   23000000 cycles:   12221819 heartbeat IPC: 1.94574 cumulative IPC: 1.88188 (Simulation time: 0 hr 0 min 43 sec) 
Heartbeat CPU  0 instructions:   24000000 cycles:   12641230 heartbeat IPC: 2.38430 cumulative IPC: 1.89855 (Simulation time: 0 hr 0 min 44 sec) 
Heartbeat CPU  0 instructions:   25000000 cycles:   13060634 heartbeat IPC: 2.38434 cumulative IPC: 1.91415 (Simulation time: 0 hr 0 min 46 sec) 
Heartbeat CPU  0 instructions:   26000000 cycles:   13480055 heartbeat IPC: 2.38424 cumulative IPC: 1.92878 (Simulation time: 0 hr 0 min 47 sec) 
Heartbeat CPU  0 instructions:   27000000 cycles:   13899489 heartbeat IPC: 2.38417 cumulative IPC: 1.94252 (Simulation time: 0 hr 0 min 48 sec) 
Heartbeat CPU  0 instructions:   28000000 cycles:   14318924 heartbeat IPC: 2.38416 cumulative IPC: 1.95545 (Simulation time: 0 hr 0 min 50 sec) 
Heartbeat CPU  0 instructions:   29000001 cycles:   14738331 heartbeat IPC: 2.38432 cumulative IPC: 1.96766 (Simulation time: 0 hr 0 min 51 sec) 
Heartbeat CPU  0 instructions:   30000003 cycles:   15157734 heartbeat IPC: 2.38435 cumulative IPC: 1.97919 (Simulation time: 0 hr 0 min 52 sec) 
Heartbeat CPU  0 instructions:   31000001 cycles:   15577159 heartbeat IPC: 2.38421 cumulative IPC: 1.99009 (Simulation time: 0 hr 0 min 53 sec) 
Heartbeat CPU  0 instructions:   32000000 cycles:   15996616 heartbeat IPC: 2.38403 cumulative IPC: 2.00042 (Simulation time: 0 hr 0 min 54 sec) 
Heartbeat CPU  0 instructions:   33000003 cycles:   16416016 heartbeat IPC: 2.38437 cumulative IPC: 2.01023 (Simulation time: 0 hr 0 min 56 sec) 
Heartbeat CPU  0 instructions:   34000000 cycles:   16835410 heartbeat IPC: 2.38439 cumulative IPC: 2.01955 (Simulation time: 0 hr 0 min 57 sec) 
Heartbeat CPU  0 instructions:   35000002 cycles:   17254826 heartbeat IPC: 2.38427 cumulative IPC: 2.02842 (Simulation time: 0 hr 0 min 58 sec) 
Heartbeat CPU  0 instructions:   36000000 cycles:   17674267 heartbeat IPC: 2.38412 cumulative IPC: 2.03686 (Simulation time: 0 hr 1 min 0 sec) 
Heartbeat CPU  0 instructions:   37000000 cycles:   18093712 heartbeat IPC: 2.38410 cumulative IPC: 2.04491 (Simulation time: 0 hr 1 min 1 sec) 
Heartbeat CPU  0 instructions:   38000002 cycles:   18513112 heartbeat IPC: 2.38436 cumulative IPC: 2.05260 (Simulation time: 0 hr 1 min 2 sec) 
Heartbeat CPU  0 instructions:   39000000 cycles:   18932523 heartbeat IPC: 2.38429 cumulative IPC: 2.05995 (Simulation time: 0 hr 1 min 3 sec) 
Heartbeat CPU  0 instructions:   40000000 cycles:   19351940 heartbeat IPC: 2.38426 cumulative IPC: 2.06698 (Simulation time: 0 hr 1 min 4 sec) 
Heartbeat CPU  0 instructions:   41000001 cycles:   19771405 heartbeat IPC: 2.38399 cumulative IPC: 2.07370 (Simulation time: 0 hr 1 min 6 sec) 
Heartbeat CPU  0 instructions:   42000003 cycles:   20190812 heartbeat IPC: 2.38432 cumulative IPC: 2.08015 (Simulation time: 0 hr 1 min 7 sec) 
Heartbeat CPU  0 instructions:   43000001 cycles:   20610214 heartbeat IPC: 2.38434 cumulative IPC: 2.08634 (Simulation time: 0 hr 1 min 8 sec) 
Heartbeat CPU  0 instructions:   44000000 cycles:   21029614 heartbeat IPC: 2.38436 cumulative IPC: 2.09229 (Simulation time: 0 hr 1 min 9 sec) 
Heartbeat CPU  0 instructions:   45000001 cycles:   21449048 heartbeat IPC: 2.38417 cumulative IPC: 2.09800 (Simulation time: 0 hr 1 min 11 sec) 
Heartbeat CPU  0 instructions:   46000001 cycles:   21868492 heartbeat IPC: 2.38411 cumulative IPC: 2.10348 (Simulation time: 0 hr 1 min 12 sec) 
Heartbeat CPU  0 instructions:   47000000 cycles:   22408429 heartbeat IPC: 1.85207 cumulative IPC: 2.09742 (Simulation time: 0 hr 1 min 13 sec) 
Heartbeat CPU  0 instructions:   48000000 cycles:   22950688 heartbeat IPC: 1.84414 cumulative IPC: 2.09144 (Simulation time: 0 hr 1 min 14 sec) 
Heartbeat CPU  0 instructions:   49000000 cycles:   23492949 heartbeat IPC: 1.84413 cumulative IPC: 2.08573 (Simulation time: 0 hr 1 min 16 sec) 
Heartbeat CPU  0 instructions:   50000003 cycles:   24035209 heartbeat IPC: 1.84414 cumulative IPC: 2.08028 (Simulation time: 0 hr 1 min 17 sec) 

Warmup complete CPU  0 instructions:   50000003 cycles:   24035209 (Simulation time: 0 hr 1 min 17 sec) 

Heartbeat CPU  0 instructions:   51000002 cycles:   24735764 heartbeat IPC: 1.42744 cumulative IPC: 1.42744 (Simulation time: 0 hr 1 min 19 sec) 
Heartbeat CPU  0 instructions:   52000000 cycles:   25435465 heartbeat IPC: 1.42918 cumulative IPC: 1.42831 (Simulation time: 0 hr 1 min 21 sec) 
Heartbeat CPU  0 instructions:   53000000 cycles:   26135921 heartbeat IPC: 1.42764 cumulative IPC: 1.42809 (Simulation time: 0 hr 1 min 23 sec) 
Heartbeat CPU  0 instructions:   54000003 cycles:   26835270 heartbeat IPC: 1.42991 cumulative IPC: 1.42854 (Simulation time: 0 hr 1 min 25 sec) 
Heartbeat CPU  0 instructions:   55000002 cycles:   27535216 heartbeat IPC: 1.42868 cumulative IPC: 1.42857 (Simulation time: 0 hr 1 min 28 sec) 
Heartbeat CPU  0 instructions:   56000000 cycles:   28235396 heartbeat IPC: 1.42820 cumulative IPC: 1.42851 (Simulation time: 0 hr 1 min 30 sec) 
Heartbeat CPU  0 instructions:   57000000 cycles:   28935854 heartbeat IPC: 1.42764 cumulative IPC: 1.42838 (Simulation time: 0 hr 1 min 32 sec) 
Heartbeat CPU  0 instructions:   58000002 cycles:   29636633 heartbeat IPC: 1.42699 cumulative IPC: 1.42821 (Simulation time: 0 hr 1 min 34 sec) 
Heartbeat CPU  0 instructions:   59000001 cycles:   30335974 heartbeat IPC: 1.42992 cumulative IPC: 1.42840 (Simulation time: 0 hr 1 min 36 sec) 
Heartbeat CPU  0 instructions:   60000000 cycles:   31036106 heartbeat IPC: 1.42830 cumulative IPC: 1.42839 (Simulation time: 0 hr 1 min 38 sec) 
Heartbeat CPU  0 instructions:   61000003 cycles:   31735496 heartbeat IPC: 1.42982 cumulative IPC: 1.42852 (Simulation time: 0 hr 1 min 40 sec) 
Heartbeat CPU  0 instructions:   62000002 cycles:   32429175 heartbeat IPC: 1.44159 cumulative IPC: 1.42960 (Simulation time: 0 hr 1 min 42 sec) 
Heartbeat CPU  0 instructions:   63000001 cycles:   33127702 heartbeat IPC: 1.43158 cumulative IPC: 1.42975 (Simulation time: 0 hr 1 min 45 sec) 
Heartbeat CPU  0 instructions:   64000000 cycles:   33827529 heartbeat IPC: 1.42892 cumulative IPC: 1.42969 (Simulation time: 0 hr 1 min 47 sec) 
Heartbeat CPU  0 instructions:   65000003 cycles:   34527039 heartbeat IPC: 1.42958 cumulative IPC: 1.42968 (Simulation time: 0 hr 1 min 49 sec) 
Heartbeat CPU  0 instructions:   66000002 cycles:   35226969 heartbeat IPC: 1.42871 cumulative IPC: 1.42962 (Simulation time: 0 hr 1 min 51 sec) 
Heartbeat CPU  0 instructions:   67000001 cycles:   35926549 heartbeat IPC: 1.42943 cumulative IPC: 1.42961 (Simulation time: 0 hr 1 min 54 sec) 
Heartbeat CPU  0 instructions:   68000000 cycles:   36626489 heartbeat IPC: 1.42869 cumulative IPC: 1.42956 (Simulation time: 0 hr 1 min 56 sec) 
Heartbeat CPU  0 instructions:   69000002 cycles:   37326549 heartbeat IPC: 1.42845 cumulative IPC: 1.42950 (Simulation time: 0 hr 1 min 58 sec) 
Heartbeat CPU  0 instructions:   70000002 cycles:   38096511 heartbeat IPC: 1.29877 cumulative IPC: 1.42234 (Simulation time: 0 hr 2 min 1 sec) 
Heartbeat CPU  0 instructions:   71000002 cycles:   39873656 heartbeat IPC: 0.56270 cumulative IPC: 1.32589 (Simulation time: 0 hr 2 min 4 sec) 
Heartbeat CPU  0 instructions:   72000000 cycles:   41973997 heartbeat IPC: 0.47611 cumulative IPC: 1.22639 (Simulation time: 0 hr 2 min 7 sec) 
Heartbeat CPU  0 instructions:   73000002 cycles:   44025305 heartbeat IPC: 0.48749 cumulative IPC: 1.15057 (Simulation time: 0 hr 2 min 11 sec) 
Heartbeat CPU  0 instructions:   74000002 cycles:   46097264 heartbeat IPC: 0.48264 cumulative IPC: 1.08784 (Simulation time: 0 hr 2 min 14 sec) 
Heartbeat CPU  0 instructions:   75000002 cycles:   48207722 heartbeat IPC: 0.47383 cumulative IPC: 1.03423 (Simulation time: 0 hr 2 min 18 sec) 
Heartbeat CPU  0 instructions:   76000000 cycles:   50233053 heartbeat IPC: 0.49375 cumulative IPC: 0.99245 (Simulation time: 0 hr 2 min 21 sec) 
Heartbeat CPU  0 instructions:   77000002 cycles:   52263509 heartbeat IPC: 0.49250 cumulative IPC: 0.95649 (Simulation time: 0 hr 2 min 24 sec) 
Heartbeat CPU  0 instructions:   78000002 cycles:   54343004 heartbeat IPC: 0.48089 cumulative IPC: 0.92385 (Simulation time: 0 hr 2 min 27 sec) 
Heartbeat CPU  0 instructions:   79000002 cycles:   56427511 heartbeat IPC: 0.47973 cumulative IPC: 0.89527 (Simulation time: 0 hr 2 min 30 sec) 
Heartbeat CPU  0 instructions:   80000000 cycles:   58456600 heartbeat IPC: 0.49283 cumulative IPC: 0.87155 (Simulation time: 0 hr 2 min 34 sec) 
Heartbeat CPU  0 instructions:   81000002 cycles:   60518368 heartbeat IPC: 0.48502 cumulative IPC: 0.84971 (Simulation time: 0 hr 2 min 37 sec) 
Heartbeat CPU  0 instructions:   82000002 cycles:   62619981 heartbeat IPC: 0.47583 cumulative IPC: 0.82934 (Simulation time: 0 hr 2 min 40 sec) 
Heartbeat CPU  0 instructions:   83000002 cycles:   64676051 heartbeat IPC: 0.48636 cumulative IPC: 0.81199 (Simulation time: 0 hr 2 min 43 sec) 
Heartbeat CPU  0 instructions:   84000000 cycles:   66481916 heartbeat IPC: 0.55375 cumulative IPC: 0.80100 (Simulation time: 0 hr 2 min 46 sec) 
Heartbeat CPU  0 instructions:   85000003 cycles:   67234859 heartbeat IPC: 1.32813 cumulative IPC: 0.81019 (Simulation time: 0 hr 2 min 48 sec) 
Heartbeat CPU  0 instructions:   86000001 cycles:   68027412 heartbeat IPC: 1.26174 cumulative IPC: 0.81833 (Simulation time: 0 hr 2 min 50 sec) 
Heartbeat CPU  0 instructions:   87000003 cycles:   68784791 heartbeat IPC: 1.32035 cumulative IPC: 0.82682 (Simulation time: 0 hr 2 min 53 sec) 
Heartbeat CPU  0 instructions:   88000000 cycles:   69543384 heartbeat IPC: 1.31823 cumulative IPC: 0.83501 (Simulation time: 0 hr 2 min 55 sec) 
Heartbeat CPU  0 instructions:   89000001 cycles:   70301017 heartbeat IPC: 1.31990 cumulative IPC: 0.84296 (Simulation time: 0 hr 2 min 57 sec) 
Heartbeat CPU  0 instructions:   90000002 cycles:   71059490 heartbeat IPC: 1.31844 cumulative IPC: 0.85062 (Simulation time: 0 hr 2 min 59 sec) 
Heartbeat CPU  0 instructions:   91000000 cycles:   71816580 heartbeat IPC: 1.32084 cumulative IPC: 0.85807 (Simulation time: 0 hr 3 min 1 sec) 
Heartbeat CPU  0 instructions:   92000000 cycles:   72575606 heartbeat IPC: 1.31748 cumulative IPC: 0.86526 (Simulation time: 0 hr 3 min 3 sec) 
Heartbeat CPU  0 instructions:   93000002 cycles:   73333275 heartbeat IPC: 1.31984 cumulative IPC: 0.87225 (Simulation time: 0 hr 3 min 5 sec) 
Heartbeat CPU  0 instructions:   94000000 cycles:   74091068 heartbeat IPC: 1.31962 cumulative IPC: 0.87902 (Simulation time: 0 hr 3 min 7 sec) 
Heartbeat CPU  0 instructions:   95000002 cycles:   74849567 heartbeat IPC: 1.31840 cumulative IPC: 0.88558 (Simulation time: 0 hr 3 min 9 sec) 
Heartbeat CPU  0 instructions:   96000000 cycles:   75606921 heartbeat IPC: 1.32038 cumulative IPC: 0.89196 (Simulation time: 0 hr 3 min 11 sec) 
Heartbeat CPU  0 instructions:   97000000 cycles:   76365963 heartbeat IPC: 1.31745 cumulative IPC: 0.89813 (Simulation time: 0 hr 3 min 14 sec) 
Heartbeat CPU  0 instructions:   98000001 cycles:   77123609 heartbeat IPC: 1.31988 cumulative IPC: 0.90415 (Simulation time: 0 hr 3 min 16 sec) 
Heartbeat CPU  0 instructions:   99000003 cycles:   77882766 heartbeat IPC: 1.31725 cumulative IPC: 0.90998 (Simulation time: 0 hr 3 min 18 sec) 
Heartbeat CPU  0 instructions:  100000000 cycles:   78641073 heartbeat IPC: 1.31872 cumulative IPC: 0.91565 (Simulation time: 0 hr 3 min 20 sec) 
Heartbeat CPU  0 instructions:  101000003 cycles:   79399986 heartbeat IPC: 1.31768 cumulative IPC: 0.92116 (Simulation time: 0 hr 3 min 22 sec) 
Heartbeat CPU  0 instructions:  102000003 cycles:   80157122 heartbeat IPC: 1.32077 cumulative IPC: 0.92655 (Simulation time: 0 hr 3 min 24 sec) 
Heartbeat CPU  0 instructions:  103000001 cycles:   80915742 heartbeat IPC: 1.31818 cumulative IPC: 0.93178 (Simulation time: 0 hr 3 min 27 sec) 
Heartbeat CPU  0 instructions:  104000000 cycles:   81673631 heartbeat IPC: 1.31945 cumulative IPC: 0.93687 (Simulation time: 0 hr 3 min 29 sec) 
Heartbeat CPU  0 instructions:  105000000 cycles:   82431437 heartbeat IPC: 1.31960 cumulative IPC: 0.94184 (Simulation time: 0 hr 3 min 31 sec) 
Heartbeat CPU  0 instructions:  106000002 cycles:   83189338 heartbeat IPC: 1.31944 cumulative IPC: 0.94668 (Simulation time: 0 hr 3 min 34 sec) 
Heartbeat CPU  0 instructions:  107000000 cycles:   83952709 heartbeat IPC: 1.30998 cumulative IPC: 0.95131 (Simulation time: 0 hr 3 min 37 sec) 
Heartbeat CPU  0 instructions:  108000000 cycles:   84741601 heartbeat IPC: 1.26760 cumulative IPC: 0.95542 (Simulation time: 0 hr 3 min 39 sec) 
Heartbeat CPU  0 instructions:  109000000 cycles:   85536451 heartbeat IPC: 1.25810 cumulative IPC: 0.95933 (Simulation time: 0 hr 3 min 42 sec) 
Heartbeat CPU  0 instructions:  110000001 cycles:   86340511 heartbeat IPC: 1.24369 cumulative IPC: 0.96300 (Simulation time: 0 hr 3 min 44 sec) 
Heartbeat CPU  0 instructions:  111000001 cycles:   87144976 heartbeat IPC: 1.24306 cumulative IPC: 0.96657 (Simulation time: 0 hr 3 min 46 sec) 
Heartbeat CPU  0 instructions:  112000000 cycles:   87950890 heartbeat IPC: 1.24083 cumulative IPC: 0.97003 (Simulation time: 0 hr 3 min 48 sec) 
Heartbeat CPU  0 instructions:  113000002 cycles:   88755955 heartbeat IPC: 1.24214 cumulative IPC: 0.97341 (Simulation time: 0 hr 3 min 50 sec) 
Heartbeat CPU  0 instructions:  114000002 cycles:   89560869 heartbeat IPC: 1.24237 cumulative IPC: 0.97672 (Simulation time: 0 hr 3 min 53 sec) 
Heartbeat CPU  0 instructions:  115000003 cycles:   90365790 heartbeat IPC: 1.24236 cumulative IPC: 0.97994 (Simulation time: 0 hr 3 min 55 sec) 
Heartbeat CPU  0 instructions:  116000000 cycles:   91170685 heartbeat IPC: 1.24239 cumulative IPC: 0.98309 (Simulation time: 0 hr 3 min 57 sec) 
Heartbeat CPU  0 instructions:  117000000 cycles:   91975841 heartbeat IPC: 1.24200 cumulative IPC: 0.98616 (Simulation time: 0 hr 3 min 59 sec) 
Heartbeat CPU  0 instructions:  118000000 cycles:   92780235 heartbeat IPC: 1.24317 cumulative IPC: 0.98916 (Simulation time: 0 hr 4 min 2 sec) 
Heartbeat CPU  0 instructions:  119000001 cycles:   93584792 heartbeat IPC: 1.24292 cumulative IPC: 0.99210 (Simulation time: 0 hr 4 min 4 sec) 
Heartbeat CPU  0 instructions:  120000000 cycles:   94389278 heartbeat IPC: 1.24303 cumulative IPC: 0.99497 (Simulation time: 0 hr 4 min 6 sec) 
Heartbeat CPU  0 instructions:  121000000 cycles:   95194060 heartbeat IPC: 1.24257 cumulative IPC: 0.99777 (Simulation time: 0 hr 4 min 7 sec) 
Heartbeat CPU  0 instructions:  122000002 cycles:   95999407 heartbeat IPC: 1.24170 cumulative IPC: 1.00050 (Simulation time: 0 hr 4 min 9 sec) 
Heartbeat CPU  0 instructions:  123000002 cycles:   96804080 heartbeat IPC: 1.24274 cumulative IPC: 1.00318 (Simulation time: 0 hr 4 min 12 sec) 
Heartbeat CPU  0 instructions:  124000000 cycles:   97608239 heartbeat IPC: 1.24353 cumulative IPC: 1.00580 (Simulation time: 0 hr 4 min 13 sec) 
Heartbeat CPU  0 instructions:  125000003 cycles:   98412979 heartbeat IPC: 1.24264 cumulative IPC: 1.00837 (Simulation time: 0 hr 4 min 15 sec) 
Heartbeat CPU  0 instructions:  126000000 cycles:   99217690 heartbeat IPC: 1.24268 cumulative IPC: 1.01087 (Simulation time: 0 hr 4 min 18 sec) 
Heartbeat CPU  0 instructions:  127000000 cycles:  100022872 heartbeat IPC: 1.24196 cumulative IPC: 1.01332 (Simulation time: 0 hr 4 min 20 sec) 
Heartbeat CPU  0 instructions:  128000000 cycles:  100827660 heartbeat IPC: 1.24256 cumulative IPC: 1.01572 (Simulation time: 0 hr 4 min 22 sec) 
Heartbeat CPU  0 instructions:  129000001 cycles:  101632120 heartbeat IPC: 1.24307 cumulative IPC: 1.01808 (Simulation time: 0 hr 4 min 24 sec) 
Heartbeat CPU  0 instructions:  130000001 cycles:  102436335 heartbeat IPC: 1.24345 cumulative IPC: 1.02039 (Simulation time: 0 hr 4 min 26 sec) 
Heartbeat CPU  0 instructions:  131000000 cycles:  103287631 heartbeat IPC: 1.17468 cumulative IPC: 1.02205 (Simulation time: 0 hr 4 min 28 sec) 
Heartbeat CPU  0 instructions:  132000000 cycles:  105114137 heartbeat IPC: 0.54749 cumulative IPC: 1.01136 (Simulation time: 0 hr 4 min 31 sec) 
Heartbeat CPU  0 instructions:  133000000 cycles:  107202777 heartbeat IPC: 0.47878 cumulative IPC: 0.99799 (Simulation time: 0 hr 4 min 34 sec) 
Heartbeat CPU  0 instructions:  134000000 cycles:  109274662 heartbeat IPC: 0.48265 cumulative IPC: 0.98546 (Simulation time: 0 hr 4 min 37 sec) 
Heartbeat CPU  0 instructions:  135000000 cycles:  111329719 heartbeat IPC: 0.48660 cumulative IPC: 0.97372 (Simulation time: 0 hr 4 min 40 sec) 
Heartbeat CPU  0 instructions:  136000000 cycles:  113398760 heartbeat IPC: 0.48332 cumulative IPC: 0.96236 (Simulation time: 0 hr 4 min 43 sec) 
Heartbeat CPU  0 instructions:  137000000 cycles:  115448476 heartbeat IPC: 0.48787 cumulative IPC: 0.95172 (Simulation time: 0 hr 4 min 45 sec) 
Heartbeat CPU  0 instructions:  138000000 cycles:  117476708 heartbeat IPC: 0.49304 cumulative IPC: 0.94177 (Simulation time: 0 hr 4 min 48 sec) 
Heartbeat CPU  0 instructions:  139000000 cycles:  119555251 heartbeat IPC: 0.48111 cumulative IPC: 0.93174 (Simulation time: 0 hr 4 min 51 sec) 
Heartbeat CPU  0 instructions:  140000000 cycles:  121628987 heartbeat IPC: 0.48222 cumulative IPC: 0.92219 (Simulation time: 0 hr 4 min 54 sec) 
Heartbeat CPU  0 instructions:  141000000 cycles:  123688951 heartbeat IPC: 0.48545 cumulative IPC: 0.91316 (Simulation time: 0 hr 4 min 57 sec) 
Heartbeat CPU  0 instructions:  142000000 cycles:  125748489 heartbeat IPC: 0.48555 cumulative IPC: 0.90450 (Simulation time: 0 hr 5 min 0 sec) 
Heartbeat CPU  0 instructions:  143000000 cycles:  127832302 heartbeat IPC: 0.47989 cumulative IPC: 0.89598 (Simulation time: 0 hr 5 min 3 sec) 
Heartbeat CPU  0 instructions:  144000000 cycles:  129899463 heartbeat IPC: 0.48376 cumulative IPC: 0.88793 (Simulation time: 0 hr 5 min 6 sec) 
Heartbeat CPU  0 instructions:  145000002 cycles:  131594842 heartbeat IPC: 0.58984 cumulative IPC: 0.88323 (Simulation time: 0 hr 5 min 8 sec) 
Heartbeat CPU  0 instructions:  146000000 cycles:  132344056 heartbeat IPC: 1.33473 cumulative IPC: 0.88635 (Simulation time: 0 hr 5 min 10 sec) 
Heartbeat CPU  0 instructions:  147000000 cycles:  133138470 heartbeat IPC: 1.25879 cumulative IPC: 0.88907 (Simulation time: 0 hr 5 min 12 sec) 
Heartbeat CPU  0 instructions:  148000000 cycles:  133895781 heartbeat IPC: 1.32046 cumulative IPC: 0.89204 (Simulation time: 0 hr 5 min 14 sec) 
Heartbeat CPU  0 instructions:  149000000 cycles:  134653299 heartbeat IPC: 1.32010 cumulative IPC: 0.89497 (Simulation time: 0 hr 5 min 16 sec) 
Heartbeat CPU  0 instructions:  150000001 cycles:  135411422 heartbeat IPC: 1.31905 cumulative IPC: 0.89786 (Simulation time: 0 hr 5 min 18 sec) 
Finished CPU 0 instructions: 100000002 cycles: 111376214 cumulative IPC: 0.89786 (Simulation time: 0 hr 5 min 18 sec) 

ChampSim completed all CPUs

[ROI Statistics]
Core_0_instructions 100000002
Core_0_cycles 111376214
Core_0_IPC 0.89786

Core_0_branch_prediction_accuracy 99.68898
Core_0_branch_MPKI 0.52932
Core_0_average_ROB_occupancy_at_mispredict 207.95368

Core_0_L1D_total_access 14555302
Core_0_L1D_total_hit 11903651
Core_0_L1D_total_miss 2651651
Core_0_L1D_loads 10308003
Core_0_L1D_load_hit 7656372
Core_0_L1D_load_miss 2651631
Core_0_L1D_RFOs 4247299
Core_0_L1D_RFO_hit 4247279
Core_0_L1D_RFO_miss 20
Core_0_L1D_prefetches 0
Core_0_L1D_prefetch_hit 0
Core_0_L1D_prefetch_miss 0
Core_0_L1D_writebacks 0
Core_0_L1D_writeback_hit 0
Core_0_L1D_writeback_miss 0
Core_0_L1D_prefetch_requested 0
Core_0_L1D_prefetch_issued 0
Core_0_L1D_prefetch_useful 0
Core_0_L1D_prefetch_useless 0
Core_0_L1D_prefetch_late 0
Core_0_L1D_average_miss_latency 69.39711

Core_0_L1I_total_access 31501967
Core_0_L1I_total_hit 31501967
Core_0_L1I_total_miss 0
Core_0_L1I_loads 31501967
Core_0_L1I_load_hit 31501967
Core_0_L1I_load_miss 0
Core_0_L1I_RFOs 0
Core_0_L1I_RFO_hit 0
Core_0_L1I_RFO_miss 0
Core_0_L1I_prefetches 0
Core_0_L1I_prefetch_hit 0
Core_0_L1I_prefetch_miss 0
Core_0_L1I_writebacks 0
Core_0_L1I_writeback_hit 0
Core_0_L1I_writeback_miss 0
Core_0_L1I_prefetch_requested 0
Core_0_L1I_prefetch_issued 0
Core_0_L1I_prefetch_useful 0
Core_0_L1I_prefetch_useless 0
Core_0_L1I_prefetch_late 0
Core_0_L1I_average_miss_latency -nan

Core_0_L2C_total_access 14459298
Core_0_L2C_total_hit 11807589
Core_0_L2C_total_miss 2651709
Core_0_L2C_loads 2651631
Core_0_L2C_load_hit 2140166
Core_0_L2C_load_miss 511465
Core_0_L2C_RFOs 20
Core_0_L2C_RFO_hit 0
Core_0_L2C_RFO_miss 20
Core_0_L2C_prefetches 10706133
Core_0_L2C_prefetch_hit 8565909
Core_0_L2C_prefetch_miss 2140224
Core_0_L2C_writebacks 1101514
Core_0_L2C_writeback_hit 1101514
Core_0_L2C_writeback_miss 0
Core_0_L2C_prefetch_requested 43741048
Core_0_L2C_prefetch_issued 39638884
Core_0_L2C_prefetch_useful 3445700
Core_0_L2C_prefetch_useless 88
Core_0_L2C_prefetch_late 447316
Core_0_L2C_average_miss_latency 239.49896

Core_0_LLC_total_access 3752985
Core_0_LLC_total_hit 222894
Core_0_LLC_total_miss 3530091
Core_0_LLC_loads 64149
Core_0_LLC_load_hit 3679
Core_0_LLC_load_miss 60470
Core_0_LLC_RFOs 20
Core_0_LLC_RFO_hit 20
Core_0_LLC_RFO_miss 0
Core_0_LLC_prefetches 2587541
Core_0_LLC_prefetch_hit 149901
Core_0_LLC_prefetch_miss 2437640
Core_0_LLC_writebacks 1101275
Core_0_LLC_writeback_hit 69294
Core_0_LLC_writeback_miss 1031981
Core_0_LLC_prefetch_requested 0
Core_0_LLC_prefetch_issued 0
Core_0_LLC_prefetch_useful 0
Core_0_LLC_prefetch_useless 3680787
Core_0_LLC_prefetch_late 0
Core_0_LLC_average_miss_latency 215.53599

Core_0_major_page_fault 0
Core_0_minor_page_fault 8199

GHB PC/CS prefetching over
Channel_0_RQ_row_buffer_hit 1636342
Channel_0_RQ_row_buffer_miss 861768
Channel_0_WQ_row_buffer_hit 257790
Channel_0_WQ_row_buffer_miss 778140
Channel_0_WQ_full 0
Channel_0_dbus_congested 2586691

avg_congested_cycle 11
