*************************************************
   ChampSim Multicore Out-of-Order Simulator
   Last compiled: Jan  7 2023 05:01:22
*************************************************

trace_0 ../traces/482.sphinx3-1100B.champsimtrace.xz
GHB PC/CS prefetching
Initialize LFU state
warmup_instructions 50000000
simulation_instructions 100000000
champsim_seed 260

num_cpus 1
cpu_freq 4000
dram_io_freq 2400
page_size 4096
block_size 64
max_read_per_cycle 8
max_fill_per_cycle 1
dram_channels 1
dram_ranks 1
dram_banks 8
dram_rows 65536
dram_columns 128
dram_row_size 8
dram_size 4096
dram_pages 1048576

fetch_width 6
decode_width 6
exec_width 4
lq_width 2
sq_width 2
retire_width 4
scheduler_size 128
branch_mispredict_penalty 20
rob_size 256
lq_size 72
sq_size 56
num_instr_destinations_sparc 4
num_instr_destinations 2
num_instr_sources 4

itlb_set 16
itlb_way 8
itlb_rq_size 16
itlb_wq_size 16
itlb_pq_size 0
itlb_mshr_size 8
itlb_latency 1

dtlb_set 16
dtlb_way 4
dtlb_rq_size 16
dtlb_wq_size 16
dtlb_pq_size 0
dtlb_mshr_size 8
dtlb_latency 1

stlb_set 128
stlb_way 12
stlb_rq_size 32
stlb_wq_size 32
stlb_pq_size 0
stlb_mshr_size 16
stlb_latency 8

l1i_size 32
l1i_set 64
l1i_way 8
l1i_rq_size 64
l1i_wq_size 64
l1i_pq_size 8
l1i_mshr_size 8
l1i_latency 1

l1d_size 32
l1d_set 64
l1d_way 8
l1d_rq_size 64
l1d_wq_size 64
l1d_pq_size 8
l1d_mshr_size 16
l1d_latency 4

l2c_size 512
l2c_set 1024
l2c_way 8
l2c_rq_size 32
l2c_wq_size 32
l2c_pq_size 16
l2c_mshr_size 32
l2c_latency 10

llc_size 2048
llc_set 2048
llc_way 16
llc_rq_size 32
llc_wq_size 32
llc_pq_size 32
llc_mshr_size 64
llc_latency 20

dram_channel_width 8
dram_wq_size 64
dram_rq_size 64
tRP 15
tRCD 15
tCAS 12.5
dram_dbus_turn_around_time 30
dram_write_high_wm 56
dram_write_low_wm 48
min_dram_writes_per_switch 16
dram_mtps 2400
dram_dbus_return_time 13


Heartbeat CPU  0 instructions:    1000001 cycles:     367702 heartbeat IPC: 2.71960 cumulative IPC: 2.71960 (Simulation time: 0 hr 0 min 1 sec) 
Heartbeat CPU  0 instructions:    2000003 cycles:     795057 heartbeat IPC: 2.33998 cumulative IPC: 2.51555 (Simulation time: 0 hr 0 min 3 sec) 
Heartbeat CPU  0 instructions:    3000001 cycles:    1252794 heartbeat IPC: 2.18466 cumulative IPC: 2.39465 (Simulation time: 0 hr 0 min 5 sec) 
Heartbeat CPU  0 instructions:    4000000 cycles:    1735339 heartbeat IPC: 2.07234 cumulative IPC: 2.30503 (Simulation time: 0 hr 0 min 6 sec) 
Heartbeat CPU  0 instructions:    5000000 cycles:    2177981 heartbeat IPC: 2.25916 cumulative IPC: 2.29570 (Simulation time: 0 hr 0 min 8 sec) 
Heartbeat CPU  0 instructions:    6000001 cycles:    2545362 heartbeat IPC: 2.72197 cumulative IPC: 2.35723 (Simulation time: 0 hr 0 min 10 sec) 
Heartbeat CPU  0 instructions:    7000000 cycles:    2936322 heartbeat IPC: 2.55780 cumulative IPC: 2.38393 (Simulation time: 0 hr 0 min 12 sec) 
Heartbeat CPU  0 instructions:    8000000 cycles:    3394750 heartbeat IPC: 2.18137 cumulative IPC: 2.35658 (Simulation time: 0 hr 0 min 14 sec) 
Heartbeat CPU  0 instructions:    9000000 cycles:    3852576 heartbeat IPC: 2.18424 cumulative IPC: 2.33610 (Simulation time: 0 hr 0 min 15 sec) 
Heartbeat CPU  0 instructions:   10000000 cycles:    4342603 heartbeat IPC: 2.04070 cumulative IPC: 2.30277 (Simulation time: 0 hr 0 min 17 sec) 
Heartbeat CPU  0 instructions:   11000001 cycles:    4714852 heartbeat IPC: 2.68638 cumulative IPC: 2.33305 (Simulation time: 0 hr 0 min 19 sec) 
Heartbeat CPU  0 instructions:   12000000 cycles:    5082009 heartbeat IPC: 2.72363 cumulative IPC: 2.36127 (Simulation time: 0 hr 0 min 20 sec) 
Heartbeat CPU  0 instructions:   13000001 cycles:    5530921 heartbeat IPC: 2.22761 cumulative IPC: 2.35042 (Simulation time: 0 hr 0 min 22 sec) 
Heartbeat CPU  0 instructions:   14000000 cycles:    5988846 heartbeat IPC: 2.18376 cumulative IPC: 2.33768 (Simulation time: 0 hr 0 min 24 sec) 
Heartbeat CPU  0 instructions:   15000000 cycles:    6471022 heartbeat IPC: 2.07393 cumulative IPC: 2.31803 (Simulation time: 0 hr 0 min 25 sec) 
Heartbeat CPU  0 instructions:   16000000 cycles:    6880925 heartbeat IPC: 2.43960 cumulative IPC: 2.32527 (Simulation time: 0 hr 0 min 27 sec) 
Heartbeat CPU  0 instructions:   17000003 cycles:    7248169 heartbeat IPC: 2.72299 cumulative IPC: 2.34542 (Simulation time: 0 hr 0 min 29 sec) 
Heartbeat CPU  0 instructions:   18000003 cycles:    7659939 heartbeat IPC: 2.42854 cumulative IPC: 2.34989 (Simulation time: 0 hr 0 min 31 sec) 
Heartbeat CPU  0 instructions:   19000003 cycles:    8117755 heartbeat IPC: 2.18428 cumulative IPC: 2.34055 (Simulation time: 0 hr 0 min 33 sec) 
Heartbeat CPU  0 instructions:   20000000 cycles:    8586081 heartbeat IPC: 2.13526 cumulative IPC: 2.32935 (Simulation time: 0 hr 0 min 34 sec) 
Heartbeat CPU  0 instructions:   21000002 cycles:    9044939 heartbeat IPC: 2.17933 cumulative IPC: 2.32174 (Simulation time: 0 hr 0 min 36 sec) 
Heartbeat CPU  0 instructions:   22000003 cycles:    9412206 heartbeat IPC: 2.72282 cumulative IPC: 2.33739 (Simulation time: 0 hr 0 min 38 sec) 
Heartbeat CPU  0 instructions:   23000001 cycles:    9792731 heartbeat IPC: 2.62794 cumulative IPC: 2.34868 (Simulation time: 0 hr 0 min 40 sec) 
Heartbeat CPU  0 instructions:   24000000 cycles:   10247792 heartbeat IPC: 2.19751 cumulative IPC: 2.34197 (Simulation time: 0 hr 0 min 41 sec) 
Heartbeat CPU  0 instructions:   25000002 cycles:   10703082 heartbeat IPC: 2.19641 cumulative IPC: 2.33578 (Simulation time: 0 hr 0 min 43 sec) 
Heartbeat CPU  0 instructions:   26000002 cycles:   11181657 heartbeat IPC: 2.08954 cumulative IPC: 2.32524 (Simulation time: 0 hr 0 min 45 sec) 
Heartbeat CPU  0 instructions:   27000001 cycles:   11574740 heartbeat IPC: 2.54399 cumulative IPC: 2.33267 (Simulation time: 0 hr 0 min 47 sec) 
Heartbeat CPU  0 instructions:   28000000 cycles:   11941737 heartbeat IPC: 2.72482 cumulative IPC: 2.34472 (Simulation time: 0 hr 0 min 49 sec) 
Heartbeat CPU  0 instructions:   29000001 cycles:   12377854 heartbeat IPC: 2.29296 cumulative IPC: 2.34289 (Simulation time: 0 hr 0 min 50 sec) 
Heartbeat CPU  0 instructions:   30000003 cycles:   12831389 heartbeat IPC: 2.20491 cumulative IPC: 2.33802 (Simulation time: 0 hr 0 min 52 sec) 
Heartbeat CPU  0 instructions:   31000002 cycles:   13285285 heartbeat IPC: 2.20315 cumulative IPC: 2.33341 (Simulation time: 0 hr 0 min 53 sec) 
Heartbeat CPU  0 instructions:   32000000 cycles:   13768354 heartbeat IPC: 2.07009 cumulative IPC: 2.32417 (Simulation time: 0 hr 0 min 55 sec) 
Heartbeat CPU  0 instructions:   33000003 cycles:   14169439 heartbeat IPC: 2.49324 cumulative IPC: 2.32896 (Simulation time: 0 hr 0 min 57 sec) 
Heartbeat CPU  0 instructions:   34000003 cycles:   14536471 heartbeat IPC: 2.72456 cumulative IPC: 2.33894 (Simulation time: 0 hr 0 min 58 sec) 
Heartbeat CPU  0 instructions:   35000000 cycles:   14963380 heartbeat IPC: 2.34241 cumulative IPC: 2.33904 (Simulation time: 0 hr 1 min 0 sec) 
Heartbeat CPU  0 instructions:   36000000 cycles:   15416938 heartbeat IPC: 2.20479 cumulative IPC: 2.33509 (Simulation time: 0 hr 1 min 2 sec) 
Heartbeat CPU  0 instructions:   37000000 cycles:   15870733 heartbeat IPC: 2.20364 cumulative IPC: 2.33134 (Simulation time: 0 hr 1 min 3 sec) 
Heartbeat CPU  0 instructions:   38000003 cycles:   16358302 heartbeat IPC: 2.05100 cumulative IPC: 2.32298 (Simulation time: 0 hr 1 min 5 sec) 
Heartbeat CPU  0 instructions:   39000001 cycles:   16765592 heartbeat IPC: 2.45525 cumulative IPC: 2.32619 (Simulation time: 0 hr 1 min 7 sec) 
Heartbeat CPU  0 instructions:   40000000 cycles:   17132695 heartbeat IPC: 2.72403 cumulative IPC: 2.33472 (Simulation time: 0 hr 1 min 8 sec) 
Heartbeat CPU  0 instructions:   41000003 cycles:   17552683 heartbeat IPC: 2.38103 cumulative IPC: 2.33583 (Simulation time: 0 hr 1 min 10 sec) 
Heartbeat CPU  0 instructions:   42000000 cycles:   18010449 heartbeat IPC: 2.18452 cumulative IPC: 2.33198 (Simulation time: 0 hr 1 min 12 sec) 
Heartbeat CPU  0 instructions:   43000001 cycles:   18466570 heartbeat IPC: 2.19240 cumulative IPC: 2.32853 (Simulation time: 0 hr 1 min 13 sec) 
Heartbeat CPU  0 instructions:   44000000 cycles:   18956588 heartbeat IPC: 2.04074 cumulative IPC: 2.32109 (Simulation time: 0 hr 1 min 15 sec) 
Heartbeat CPU  0 instructions:   45000002 cycles:   19368629 heartbeat IPC: 2.42695 cumulative IPC: 2.32334 (Simulation time: 0 hr 1 min 18 sec) 
Heartbeat CPU  0 instructions:   46000000 cycles:   19735864 heartbeat IPC: 2.72305 cumulative IPC: 2.33078 (Simulation time: 0 hr 1 min 20 sec) 
Heartbeat CPU  0 instructions:   47000002 cycles:   20148841 heartbeat IPC: 2.42145 cumulative IPC: 2.33264 (Simulation time: 0 hr 1 min 21 sec) 
Heartbeat CPU  0 instructions:   48000000 cycles:   20608246 heartbeat IPC: 2.17672 cumulative IPC: 2.32916 (Simulation time: 0 hr 1 min 23 sec) 
Heartbeat CPU  0 instructions:   49000003 cycles:   21064637 heartbeat IPC: 2.19111 cumulative IPC: 2.32617 (Simulation time: 0 hr 1 min 25 sec) 
Heartbeat CPU  0 instructions:   50000003 cycles:   21574995 heartbeat IPC: 1.95941 cumulative IPC: 2.31750 (Simulation time: 0 hr 1 min 26 sec) 

Warmup complete CPU  0 instructions:   50000003 cycles:   21574995 (Simulation time: 0 hr 1 min 26 sec) 

Heartbeat CPU  0 instructions:   51000002 cycles:   22452826 heartbeat IPC: 1.13917 cumulative IPC: 1.13917 (Simulation time: 0 hr 1 min 28 sec) 
Heartbeat CPU  0 instructions:   52000000 cycles:   23098418 heartbeat IPC: 1.54896 cumulative IPC: 1.31283 (Simulation time: 0 hr 1 min 30 sec) 
Heartbeat CPU  0 instructions:   53000003 cycles:   23683977 heartbeat IPC: 1.70777 cumulative IPC: 1.42249 (Simulation time: 0 hr 1 min 33 sec) 
Heartbeat CPU  0 instructions:   54000001 cycles:   24577111 heartbeat IPC: 1.11965 cumulative IPC: 1.33239 (Simulation time: 0 hr 1 min 35 sec) 
Heartbeat CPU  0 instructions:   55000001 cycles:   25499761 heartbeat IPC: 1.08383 cumulative IPC: 1.27396 (Simulation time: 0 hr 1 min 37 sec) 
Heartbeat CPU  0 instructions:   56000000 cycles:   26427741 heartbeat IPC: 1.07761 cumulative IPC: 1.23641 (Simulation time: 0 hr 1 min 39 sec) 
Heartbeat CPU  0 instructions:   57000003 cycles:   27431428 heartbeat IPC: 0.99633 cumulative IPC: 1.19527 (Simulation time: 0 hr 1 min 41 sec) 
Heartbeat CPU  0 instructions:   58000003 cycles:   28162905 heartbeat IPC: 1.36710 cumulative IPC: 1.21435 (Simulation time: 0 hr 1 min 43 sec) 
Heartbeat CPU  0 instructions:   59000003 cycles:   28747855 heartbeat IPC: 1.70955 cumulative IPC: 1.25473 (Simulation time: 0 hr 1 min 45 sec) 
Heartbeat CPU  0 instructions:   60000000 cycles:   29601409 heartbeat IPC: 1.17157 cumulative IPC: 1.24589 (Simulation time: 0 hr 1 min 47 sec) 
Heartbeat CPU  0 instructions:   61000000 cycles:   30514163 heartbeat IPC: 1.09559 cumulative IPC: 1.23054 (Simulation time: 0 hr 1 min 49 sec) 
Heartbeat CPU  0 instructions:   62000000 cycles:   31424972 heartbeat IPC: 1.09793 cumulative IPC: 1.21828 (Simulation time: 0 hr 1 min 51 sec) 
Heartbeat CPU  0 instructions:   63000000 cycles:   32451574 heartbeat IPC: 0.97409 cumulative IPC: 1.19523 (Simulation time: 0 hr 1 min 53 sec) 
Heartbeat CPU  0 instructions:   64000000 cycles:   33187744 heartbeat IPC: 1.35838 cumulative IPC: 1.20557 (Simulation time: 0 hr 1 min 56 sec) 
Heartbeat CPU  0 instructions:   65000000 cycles:   33775716 heartbeat IPC: 1.70076 cumulative IPC: 1.22944 (Simulation time: 0 hr 1 min 58 sec) 
Heartbeat CPU  0 instructions:   66000001 cycles:   34570650 heartbeat IPC: 1.25797 cumulative IPC: 1.23118 (Simulation time: 0 hr 2 min 0 sec) 
Heartbeat CPU  0 instructions:   67000000 cycles:   35492580 heartbeat IPC: 1.08468 cumulative IPC: 1.22148 (Simulation time: 0 hr 2 min 2 sec) 
Heartbeat CPU  0 instructions:   68000000 cycles:   36404983 heartbeat IPC: 1.09601 cumulative IPC: 1.21376 (Simulation time: 0 hr 2 min 4 sec) 
Heartbeat CPU  0 instructions:   69000003 cycles:   37427042 heartbeat IPC: 0.97842 cumulative IPC: 1.19858 (Simulation time: 0 hr 2 min 6 sec) 
Heartbeat CPU  0 instructions:   70000001 cycles:   38182829 heartbeat IPC: 1.32312 cumulative IPC: 1.20425 (Simulation time: 0 hr 2 min 8 sec) 
Heartbeat CPU  0 instructions:   71000001 cycles:   38774452 heartbeat IPC: 1.69027 cumulative IPC: 1.22097 (Simulation time: 0 hr 2 min 10 sec) 
Heartbeat CPU  0 instructions:   72000000 cycles:   39533610 heartbeat IPC: 1.31725 cumulative IPC: 1.22504 (Simulation time: 0 hr 2 min 12 sec) 
Heartbeat CPU  0 instructions:   73000000 cycles:   40446339 heartbeat IPC: 1.09562 cumulative IPC: 1.21878 (Simulation time: 0 hr 2 min 14 sec) 
Heartbeat CPU  0 instructions:   74000002 cycles:   41356762 heartbeat IPC: 1.09839 cumulative IPC: 1.21324 (Simulation time: 0 hr 2 min 16 sec) 
Heartbeat CPU  0 instructions:   75000002 cycles:   42385371 heartbeat IPC: 0.97219 cumulative IPC: 1.20132 (Simulation time: 0 hr 2 min 19 sec) 
Heartbeat CPU  0 instructions:   76000000 cycles:   43180970 heartbeat IPC: 1.25691 cumulative IPC: 1.20337 (Simulation time: 0 hr 2 min 21 sec) 
Heartbeat CPU  0 instructions:   77000001 cycles:   43772177 heartbeat IPC: 1.69146 cumulative IPC: 1.21637 (Simulation time: 0 hr 2 min 23 sec) 
Heartbeat CPU  0 instructions:   78000002 cycles:   44524800 heartbeat IPC: 1.32869 cumulative IPC: 1.22005 (Simulation time: 0 hr 2 min 25 sec) 
Heartbeat CPU  0 instructions:   79000000 cycles:   45435531 heartbeat IPC: 1.09802 cumulative IPC: 1.21540 (Simulation time: 0 hr 2 min 27 sec) 
Heartbeat CPU  0 instructions:   80000000 cycles:   46359134 heartbeat IPC: 1.08272 cumulative IPC: 1.21045 (Simulation time: 0 hr 2 min 30 sec) 
Heartbeat CPU  0 instructions:   81000000 cycles:   47289466 heartbeat IPC: 1.07489 cumulative IPC: 1.20555 (Simulation time: 0 hr 2 min 32 sec) 
Heartbeat CPU  0 instructions:   82000001 cycles:   48294832 heartbeat IPC: 0.99466 cumulative IPC: 1.19761 (Simulation time: 0 hr 2 min 35 sec) 
Heartbeat CPU  0 instructions:   83000001 cycles:   48919529 heartbeat IPC: 1.60078 cumulative IPC: 1.20682 (Simulation time: 0 hr 2 min 37 sec) 
Heartbeat CPU  0 instructions:   84000000 cycles:   49505132 heartbeat IPC: 1.70764 cumulative IPC: 1.21732 (Simulation time: 0 hr 2 min 39 sec) 
Heartbeat CPU  0 instructions:   85000003 cycles:   50410823 heartbeat IPC: 1.10413 cumulative IPC: 1.21377 (Simulation time: 0 hr 2 min 41 sec) 
Heartbeat CPU  0 instructions:   86000001 cycles:   51320393 heartbeat IPC: 1.09942 cumulative IPC: 1.21027 (Simulation time: 0 hr 2 min 43 sec) 
Heartbeat CPU  0 instructions:   87000003 cycles:   52232302 heartbeat IPC: 1.09660 cumulative IPC: 1.20689 (Simulation time: 0 hr 2 min 46 sec) 
Heartbeat CPU  0 instructions:   88000000 cycles:   53251130 heartbeat IPC: 0.98152 cumulative IPC: 1.19964 (Simulation time: 0 hr 2 min 48 sec) 
Heartbeat CPU  0 instructions:   89000003 cycles:   53983092 heartbeat IPC: 1.36620 cumulative IPC: 1.20340 (Simulation time: 0 hr 2 min 50 sec) 
Heartbeat CPU  0 instructions:   90000003 cycles:   54570957 heartbeat IPC: 1.70107 cumulative IPC: 1.21227 (Simulation time: 0 hr 2 min 52 sec) 
Heartbeat CPU  0 instructions:   91000002 cycles:   55364195 heartbeat IPC: 1.26065 cumulative IPC: 1.21341 (Simulation time: 0 hr 2 min 54 sec) 
Heartbeat CPU  0 instructions:   92000000 cycles:   56272051 heartbeat IPC: 1.10149 cumulative IPC: 1.21048 (Simulation time: 0 hr 2 min 57 sec) 
Heartbeat CPU  0 instructions:   93000002 cycles:   57191093 heartbeat IPC: 1.08809 cumulative IPC: 1.20732 (Simulation time: 0 hr 2 min 59 sec) 
Heartbeat CPU  0 instructions:   94000001 cycles:   58183951 heartbeat IPC: 1.00719 cumulative IPC: 1.20189 (Simulation time: 0 hr 3 min 1 sec) 
Heartbeat CPU  0 instructions:   95000001 cycles:   58834732 heartbeat IPC: 1.53662 cumulative IPC: 1.20774 (Simulation time: 0 hr 3 min 3 sec) 
Heartbeat CPU  0 instructions:   96000000 cycles:   59416894 heartbeat IPC: 1.71773 cumulative IPC: 1.21558 (Simulation time: 0 hr 3 min 5 sec) 
Heartbeat CPU  0 instructions:   97000001 cycles:   60294961 heartbeat IPC: 1.13887 cumulative IPC: 1.21384 (Simulation time: 0 hr 3 min 7 sec) 
Heartbeat CPU  0 instructions:   98000002 cycles:   61202103 heartbeat IPC: 1.10236 cumulative IPC: 1.21129 (Simulation time: 0 hr 3 min 9 sec) 
Heartbeat CPU  0 instructions:   99000003 cycles:   62210995 heartbeat IPC: 0.99119 cumulative IPC: 1.20583 (Simulation time: 0 hr 3 min 11 sec) 
Heartbeat CPU  0 instructions:  100000000 cycles:   63356964 heartbeat IPC: 0.87262 cumulative IPC: 1.19669 (Simulation time: 0 hr 3 min 13 sec) 
Heartbeat CPU  0 instructions:  101000001 cycles:   64160991 heartbeat IPC: 1.24374 cumulative IPC: 1.19758 (Simulation time: 0 hr 3 min 15 sec) 
Heartbeat CPU  0 instructions:  102000003 cycles:   64750301 heartbeat IPC: 1.69690 cumulative IPC: 1.20439 (Simulation time: 0 hr 3 min 17 sec) 
Heartbeat CPU  0 instructions:  103000000 cycles:   65441543 heartbeat IPC: 1.44667 cumulative IPC: 1.20821 (Simulation time: 0 hr 3 min 19 sec) 
Heartbeat CPU  0 instructions:  104000000 cycles:   66377631 heartbeat IPC: 1.06828 cumulative IPC: 1.20529 (Simulation time: 0 hr 3 min 22 sec) 
Heartbeat CPU  0 instructions:  105000000 cycles:   67304653 heartbeat IPC: 1.07872 cumulative IPC: 1.20272 (Simulation time: 0 hr 3 min 23 sec) 
Heartbeat CPU  0 instructions:  106000003 cycles:   67971974 heartbeat IPC: 1.49853 cumulative IPC: 1.20698 (Simulation time: 0 hr 3 min 26 sec) 
Heartbeat CPU  0 instructions:  107000003 cycles:   68550475 heartbeat IPC: 1.72861 cumulative IPC: 1.21340 (Simulation time: 0 hr 3 min 28 sec) 
Heartbeat CPU  0 instructions:  108000000 cycles:   69393520 heartbeat IPC: 1.18617 cumulative IPC: 1.21292 (Simulation time: 0 hr 3 min 30 sec) 
Heartbeat CPU  0 instructions:  109000000 cycles:   70325332 heartbeat IPC: 1.07318 cumulative IPC: 1.21025 (Simulation time: 0 hr 3 min 32 sec) 
Heartbeat CPU  0 instructions:  110000001 cycles:   71117724 heartbeat IPC: 1.26200 cumulative IPC: 1.21108 (Simulation time: 0 hr 3 min 35 sec) 
Heartbeat CPU  0 instructions:  111000000 cycles:   71702248 heartbeat IPC: 1.71079 cumulative IPC: 1.21690 (Simulation time: 0 hr 3 min 37 sec) 
Heartbeat CPU  0 instructions:  112000000 cycles:   72392963 heartbeat IPC: 1.44778 cumulative IPC: 1.22004 (Simulation time: 0 hr 3 min 39 sec) 
Heartbeat CPU  0 instructions:  113000003 cycles:   73295691 heartbeat IPC: 1.10776 cumulative IPC: 1.21808 (Simulation time: 0 hr 3 min 41 sec) 
Heartbeat CPU  0 instructions:  114000001 cycles:   74200165 heartbeat IPC: 1.10561 cumulative IPC: 1.21615 (Simulation time: 0 hr 3 min 43 sec) 
Heartbeat CPU  0 instructions:  115000000 cycles:   75001336 heartbeat IPC: 1.24817 cumulative IPC: 1.21663 (Simulation time: 0 hr 3 min 45 sec) 
Heartbeat CPU  0 instructions:  116000000 cycles:   75583343 heartbeat IPC: 1.71819 cumulative IPC: 1.22203 (Simulation time: 0 hr 3 min 47 sec) 
Heartbeat CPU  0 instructions:  117000000 cycles:   76465523 heartbeat IPC: 1.13356 cumulative IPC: 1.22061 (Simulation time: 0 hr 3 min 49 sec) 
Heartbeat CPU  0 instructions:  118000003 cycles:   77391886 heartbeat IPC: 1.07949 cumulative IPC: 1.21827 (Simulation time: 0 hr 3 min 51 sec) 
Heartbeat CPU  0 instructions:  119000002 cycles:   78344212 heartbeat IPC: 1.05006 cumulative IPC: 1.21545 (Simulation time: 0 hr 3 min 53 sec) 
Heartbeat CPU  0 instructions:  120000000 cycles:   79405083 heartbeat IPC: 0.94262 cumulative IPC: 1.21044 (Simulation time: 0 hr 3 min 56 sec) 
Heartbeat CPU  0 instructions:  121000000 cycles:   80244223 heartbeat IPC: 1.19170 cumulative IPC: 1.21017 (Simulation time: 0 hr 3 min 58 sec) 
Heartbeat CPU  0 instructions:  122000001 cycles:   80834225 heartbeat IPC: 1.69491 cumulative IPC: 1.21500 (Simulation time: 0 hr 4 min 0 sec) 
Heartbeat CPU  0 instructions:  123000001 cycles:   81533100 heartbeat IPC: 1.43087 cumulative IPC: 1.21752 (Simulation time: 0 hr 4 min 2 sec) 
Heartbeat CPU  0 instructions:  124000000 cycles:   82463768 heartbeat IPC: 1.07450 cumulative IPC: 1.21533 (Simulation time: 0 hr 4 min 4 sec) 
Heartbeat CPU  0 instructions:  125000001 cycles:   83391765 heartbeat IPC: 1.07759 cumulative IPC: 1.21326 (Simulation time: 0 hr 4 min 6 sec) 
Heartbeat CPU  0 instructions:  126000003 cycles:   84328657 heartbeat IPC: 1.06736 cumulative IPC: 1.21108 (Simulation time: 0 hr 4 min 8 sec) 
Heartbeat CPU  0 instructions:  127000000 cycles:   85296563 heartbeat IPC: 1.03316 cumulative IPC: 1.20838 (Simulation time: 0 hr 4 min 10 sec) 
Heartbeat CPU  0 instructions:  128000000 cycles:   85910152 heartbeat IPC: 1.62976 cumulative IPC: 1.21240 (Simulation time: 0 hr 4 min 12 sec) 
Heartbeat CPU  0 instructions:  129000000 cycles:   86520892 heartbeat IPC: 1.63736 cumulative IPC: 1.21640 (Simulation time: 0 hr 4 min 15 sec) 
Heartbeat CPU  0 instructions:  130000000 cycles:   87456577 heartbeat IPC: 1.06874 cumulative IPC: 1.21430 (Simulation time: 0 hr 4 min 17 sec) 
Heartbeat CPU  0 instructions:  131000002 cycles:   88376227 heartbeat IPC: 1.08737 cumulative IPC: 1.21255 (Simulation time: 0 hr 4 min 19 sec) 
Heartbeat CPU  0 instructions:  132000000 cycles:   89369098 heartbeat IPC: 1.00718 cumulative IPC: 1.20954 (Simulation time: 0 hr 4 min 21 sec) 
Heartbeat CPU  0 instructions:  133000000 cycles:   90127885 heartbeat IPC: 1.31789 cumulative IPC: 1.21074 (Simulation time: 0 hr 4 min 23 sec) 
Heartbeat CPU  0 instructions:  134000002 cycles:   90715388 heartbeat IPC: 1.70212 cumulative IPC: 1.21492 (Simulation time: 0 hr 4 min 25 sec) 
Heartbeat CPU  0 instructions:  135000001 cycles:   91475249 heartbeat IPC: 1.31603 cumulative IPC: 1.21602 (Simulation time: 0 hr 4 min 27 sec) 
Heartbeat CPU  0 instructions:  136000000 cycles:   92403261 heartbeat IPC: 1.07757 cumulative IPC: 1.21420 (Simulation time: 0 hr 4 min 29 sec) 
Heartbeat CPU  0 instructions:  137000002 cycles:   93370879 heartbeat IPC: 1.03347 cumulative IPC: 1.21177 (Simulation time: 0 hr 4 min 31 sec) 
Heartbeat CPU  0 instructions:  138000002 cycles:   94090578 heartbeat IPC: 1.38947 cumulative IPC: 1.21353 (Simulation time: 0 hr 4 min 33 sec) 
Heartbeat CPU  0 instructions:  139000002 cycles:   94679718 heartbeat IPC: 1.69739 cumulative IPC: 1.21743 (Simulation time: 0 hr 4 min 35 sec) 
Heartbeat CPU  0 instructions:  140000000 cycles:   95471984 heartbeat IPC: 1.26220 cumulative IPC: 1.21791 (Simulation time: 0 hr 4 min 37 sec) 
Heartbeat CPU  0 instructions:  141000000 cycles:   96393082 heartbeat IPC: 1.08566 cumulative IPC: 1.21628 (Simulation time: 0 hr 4 min 39 sec) 
Heartbeat CPU  0 instructions:  142000001 cycles:   97334805 heartbeat IPC: 1.06188 cumulative IPC: 1.21436 (Simulation time: 0 hr 4 min 41 sec) 
Heartbeat CPU  0 instructions:  143000003 cycles:   97991719 heartbeat IPC: 1.52227 cumulative IPC: 1.21701 (Simulation time: 0 hr 4 min 43 sec) 
Heartbeat CPU  0 instructions:  144000000 cycles:   98573974 heartbeat IPC: 1.71746 cumulative IPC: 1.22080 (Simulation time: 0 hr 4 min 45 sec) 
Heartbeat CPU  0 instructions:  145000002 cycles:   99443941 heartbeat IPC: 1.14947 cumulative IPC: 1.22000 (Simulation time: 0 hr 4 min 48 sec) 
Heartbeat CPU  0 instructions:  146000002 cycles:  100375623 heartbeat IPC: 1.07333 cumulative IPC: 1.21826 (Simulation time: 0 hr 4 min 50 sec) 
Heartbeat CPU  0 instructions:  147000002 cycles:  101242061 heartbeat IPC: 1.15415 cumulative IPC: 1.21757 (Simulation time: 0 hr 4 min 52 sec) 
Heartbeat CPU  0 instructions:  148000000 cycles:  101829999 heartbeat IPC: 1.70086 cumulative IPC: 1.22111 (Simulation time: 0 hr 4 min 55 sec) 
Heartbeat CPU  0 instructions:  149000000 cycles:  102476212 heartbeat IPC: 1.54748 cumulative IPC: 1.22371 (Simulation time: 0 hr 4 min 57 sec) 
Heartbeat CPU  0 instructions:  150000003 cycles:  103392745 heartbeat IPC: 1.09107 cumulative IPC: 1.22223 (Simulation time: 0 hr 4 min 59 sec) 
Finished CPU 0 instructions: 100000000 cycles: 81817750 cumulative IPC: 1.22223 (Simulation time: 0 hr 4 min 59 sec) 

ChampSim completed all CPUs

[ROI Statistics]
Core_0_instructions 100000000
Core_0_cycles 81817750
Core_0_IPC 1.22223

Core_0_branch_prediction_accuracy 97.44268
Core_0_branch_MPKI 2.23984
Core_0_average_ROB_occupancy_at_mispredict 142.72782

Core_0_L1D_total_access 15801908
Core_0_L1D_total_hit 14334337
Core_0_L1D_total_miss 1467571
Core_0_L1D_loads 14273137
Core_0_L1D_load_hit 12896022
Core_0_L1D_load_miss 1377115
Core_0_L1D_RFOs 1528771
Core_0_L1D_RFO_hit 1438315
Core_0_L1D_RFO_miss 90456
Core_0_L1D_prefetches 0
Core_0_L1D_prefetch_hit 0
Core_0_L1D_prefetch_miss 0
Core_0_L1D_writebacks 0
Core_0_L1D_writeback_hit 0
Core_0_L1D_writeback_miss 0
Core_0_L1D_prefetch_requested 0
Core_0_L1D_prefetch_issued 0
Core_0_L1D_prefetch_useful 0
Core_0_L1D_prefetch_useless 0
Core_0_L1D_prefetch_late 0
Core_0_L1D_average_miss_latency 25.71689

Core_0_L1I_total_access 24114571
Core_0_L1I_total_hit 24113836
Core_0_L1I_total_miss 735
Core_0_L1I_loads 24114571
Core_0_L1I_load_hit 24113836
Core_0_L1I_load_miss 735
Core_0_L1I_RFOs 0
Core_0_L1I_RFO_hit 0
Core_0_L1I_RFO_miss 0
Core_0_L1I_prefetches 0
Core_0_L1I_prefetch_hit 0
Core_0_L1I_prefetch_miss 0
Core_0_L1I_writebacks 0
Core_0_L1I_writeback_hit 0
Core_0_L1I_writeback_miss 0
Core_0_L1I_prefetch_requested 0
Core_0_L1I_prefetch_issued 0
Core_0_L1I_prefetch_useful 0
Core_0_L1I_prefetch_useless 0
Core_0_L1I_prefetch_late 0
Core_0_L1I_average_miss_latency 135.40816

Core_0_L2C_total_access 9069420
Core_0_L2C_total_hit 7595283
Core_0_L2C_total_miss 1474137
Core_0_L2C_loads 1377847
Core_0_L2C_load_hit 1186019
Core_0_L2C_load_miss 191828
Core_0_L2C_RFOs 90451
Core_0_L2C_RFO_hit 10479
Core_0_L2C_RFO_miss 79972
Core_0_L2C_prefetches 7481381
Core_0_L2C_prefetch_hit 6279278
Core_0_L2C_prefetch_miss 1202103
Core_0_L2C_writebacks 119741
Core_0_L2C_writeback_hit 119507
Core_0_L2C_writeback_miss 234
Core_0_L2C_prefetch_requested 14914120
Core_0_L2C_prefetch_issued 12232693
Core_0_L2C_prefetch_useful 1470328
Core_0_L2C_prefetch_useless 376757
Core_0_L2C_prefetch_late 39678
Core_0_L2C_average_miss_latency 141.14109

Core_0_LLC_total_access 1579338
Core_0_LLC_total_hit 382954
Core_0_LLC_total_miss 1196384
Core_0_LLC_loads 153499
Core_0_LLC_load_hit 133385
Core_0_LLC_load_miss 20114
Core_0_LLC_RFOs 79971
Core_0_LLC_RFO_hit 69786
Core_0_LLC_RFO_miss 10185
Core_0_LLC_prefetches 1240428
Core_0_LLC_prefetch_hit 76975
Core_0_LLC_prefetch_miss 1163453
Core_0_LLC_writebacks 105440
Core_0_LLC_writeback_hit 102808
Core_0_LLC_writeback_miss 2632
Core_0_LLC_prefetch_requested 0
Core_0_LLC_prefetch_issued 0
Core_0_LLC_prefetch_useful 9
Core_0_LLC_prefetch_useless 1781207
Core_0_LLC_prefetch_late 0
Core_0_LLC_average_miss_latency 139.14115

Core_0_major_page_fault 0
Core_0_minor_page_fault 3145

GHB PC/CS prefetching over
Channel_0_RQ_row_buffer_hit 924741
Channel_0_RQ_row_buffer_miss 269003
Channel_0_WQ_row_buffer_hit 493
Channel_0_WQ_row_buffer_miss 1906
Channel_0_WQ_full 0
Channel_0_dbus_congested 616944

avg_congested_cycle 10
